Version 4
SHEET 1 2640 1908
WIRE 464 -720 464 -736
WIRE 528 -720 464 -720
WIRE 656 -720 608 -720
WIRE 464 -592 464 -720
WIRE 528 -592 464 -592
WIRE 656 -576 656 -720
WIRE 656 -576 592 -576
WIRE 768 -576 656 -576
WIRE 528 -560 432 -560
WIRE 432 -416 432 -560
WIRE 544 -416 432 -416
WIRE 544 -320 544 -416
WIRE 768 -240 768 -576
WIRE 768 -240 544 -240
WIRE 32 -192 32 -320
WIRE 32 -192 -16 -192
WIRE 544 -192 544 -240
WIRE 592 -192 544 -192
WIRE 1072 -176 1072 -208
WIRE 1136 -176 1072 -176
WIRE 1200 -176 1200 -208
WIRE 1200 -176 1136 -176
WIRE 592 -80 496 -80
WIRE -1104 16 -1104 -16
WIRE 1088 32 1088 16
WIRE 1152 32 1088 32
WIRE 1280 32 1232 32
WIRE -512 48 -512 0
WIRE -512 48 -544 48
WIRE 224 64 192 64
WIRE -544 80 -544 48
WIRE -512 80 -544 80
WIRE -384 80 -432 80
WIRE 224 80 224 64
WIRE 352 80 224 80
WIRE 496 80 352 80
WIRE 608 80 576 80
WIRE -544 96 -544 80
WIRE -544 96 -656 96
WIRE 224 128 224 80
WIRE -544 144 -544 96
WIRE -384 144 -544 144
WIRE 608 144 608 80
WIRE 1088 160 1088 32
WIRE 1152 160 1088 160
WIRE 1280 176 1280 32
WIRE 1280 176 1216 176
WIRE 1392 176 1280 176
WIRE 1152 192 1056 192
WIRE 224 240 224 192
WIRE 224 240 48 240
WIRE 608 256 608 208
WIRE 608 256 432 256
WIRE 48 272 48 240
WIRE 432 288 432 256
WIRE -64 496 -112 496
WIRE 96 496 -64 496
WIRE 208 496 160 496
WIRE 208 512 208 496
WIRE 336 512 208 512
WIRE 208 528 208 512
WIRE 208 640 208 608
WIRE -64 752 -64 496
WIRE 80 752 -64 752
WIRE 192 752 160 752
WIRE 336 752 336 512
WIRE 336 752 192 752
WIRE 192 816 192 752
WIRE 192 960 192 880
WIRE 32 1232 -16 1232
WIRE 272 1232 32 1232
WIRE 384 1232 352 1232
WIRE 416 1232 384 1232
WIRE 32 1264 32 1232
WIRE 384 1296 384 1232
WIRE 32 1376 32 1344
WIRE 32 1376 -96 1376
WIRE 384 1376 384 1360
WIRE 384 1376 32 1376
WIRE 48 1712 -16 1712
WIRE 224 1712 176 1712
WIRE 336 1712 288 1712
WIRE -64 1728 -112 1728
WIRE 336 1728 336 1712
WIRE 384 1728 336 1728
WIRE -64 1744 -64 1728
WIRE -16 1744 -16 1712
WIRE -16 1744 -64 1744
WIRE 336 1744 336 1728
WIRE -64 1760 -64 1744
WIRE 336 1856 336 1824
WIRE 336 1856 208 1856
WIRE -64 1872 -64 1840
WIRE -64 1872 -192 1872
FLAG 48 272 0
FLAG -1104 -16 in
IOPIN -1104 -16 In
FLAG 0 64 LP_in
IOPIN 0 64 Out
FLAG -1104 96 0
FLAG -176 1728 HP_in
IOPIN -176 1728 Out
FLAG -192 1872 0
FLAG 1184 144 V+
IOPIN 1184 144 Out
FLAG 1184 208 V-
IOPIN 1184 208 Out
FLAG 1072 -288 V+
IOPIN 1072 -288 In
FLAG 1200 -288 V-
IOPIN 1200 -288 In
FLAG 1136 -176 0
FLAG 512 1728 F_out
IOPIN 512 1728 In
FLAG 1088 -64 0
FLAG 1056 192 F_out
IOPIN 1056 192 Out
FLAG -656 96 in
IOPIN -656 96 Out
FLAG -384 48 HP_in
IOPIN -384 48 In
FLAG -384 144 LP_in
IOPIN -384 144 In
FLAG 192 960 0
FLAG -112 496 RP_in
IOPIN -112 496 Out
FLAG 208 640 0
FLAG 512 512 F_out
IOPIN 512 512 In
FLAG -384 80 RB_in
IOPIN -384 80 In
FLAG -384 112 PB_in
IOPIN -384 112 In
FLAG -80 1232 PB_in
IOPIN -80 1232 Out
FLAG -96 1376 0
FLAG 496 1232 F_out
IOPIN 496 1232 In
FLAG 352 80 LP_out
FLAG 768 80 F_out
IOPIN 768 80 In
FLAG 208 1856 0
FLAG 432 288 0
FLAG -16 -192 LP_in
IOPIN -16 -192 Out
FLAG 592 -192 F_out
IOPIN 592 -192 In
FLAG 1392 176 pre_out
FLAG 560 -608 V+
IOPIN 560 -608 Out
FLAG 560 -544 V-
IOPIN 560 -544 Out
FLAG 464 -816 0
SYMBOL cap 208 128 R0
SYMATTR InstName C1
SYMATTR Value 398n
SYMBOL res 208 48 R90
WINDOW 0 0 56 VBottom 2
WINDOW 3 32 56 VTop 2
SYMATTR InstName R1
SYMATTR Value 1000
SYMBOL voltage -1104 0 R0
WINDOW 3 24 44 Left 2
SYMATTR Value wavefile=all3.wav
SYMATTR InstName V4
SYMBOL cap -176 1744 R270
WINDOW 0 32 32 VTop 2
WINDOW 3 0 32 VBottom 2
SYMATTR InstName C2
SYMATTR Value 16n
SYMBOL res -80 1744 R0
SYMATTR InstName R3
SYMATTR Value 1000
SYMBOL OpAmps\\AD746 1184 112 R0
SYMATTR InstName U1
SYMBOL voltage 1072 -304 R0
WINDOW 123 0 0 Left 0
WINDOW 39 0 0 Left 0
SYMATTR InstName V5
SYMATTR Value 15
SYMBOL voltage 1200 -192 R180
WINDOW 0 24 96 Left 2
WINDOW 3 24 16 Left 2
WINDOW 123 0 0 Left 0
WINDOW 39 0 0 Left 0
SYMATTR InstName V6
SYMATTR Value 15
SYMBOL res 1248 16 R90
WINDOW 0 0 56 VBottom 2
WINDOW 3 32 56 VTop 2
SYMATTR InstName R4
SYMATTR Value 100k
SYMBOL res 1104 32 R180
WINDOW 0 36 76 Left 2
WINDOW 3 36 40 Left 2
SYMATTR InstName R5
SYMATTR Value 10K
SYMBOL cap 176 816 R0
SYMATTR InstName C3
SYMATTR Value 1µ
SYMBOL res 176 736 R90
WINDOW 0 0 56 VBottom 2
WINDOW 3 32 56 VTop 2
SYMATTR InstName R2
SYMATTR Value 398
SYMBOL cap 96 512 R270
WINDOW 0 32 32 VTop 2
WINDOW 3 0 32 VBottom 2
SYMATTR InstName C4
SYMATTR Value 10µ
SYMBOL res 192 512 R0
SYMATTR InstName R6
SYMATTR Value 0.79
SYMBOL cap 368 1296 R0
SYMATTR InstName C5
SYMATTR Value 79n
SYMBOL res 368 1216 R90
WINDOW 0 0 56 VBottom 2
WINDOW 3 32 56 VTop 2
SYMATTR InstName R7
SYMATTR Value 1000
SYMBOL cap -80 1248 R270
WINDOW 0 32 32 VTop 2
WINDOW 3 0 32 VBottom 2
SYMATTR InstName C6
SYMATTR Value 79n
SYMBOL res 16 1248 R0
SYMATTR InstName R8
SYMATTR Value 1000
SYMBOL diode 336 528 R270
WINDOW 0 32 32 VTop 2
WINDOW 3 0 32 VBottom 2
SYMATTR InstName D3
SYMBOL diode 416 1248 R270
WINDOW 0 32 32 VTop 2
WINDOW 3 0 32 VBottom 2
SYMATTR InstName D4
SYMBOL cap 224 1728 R270
WINDOW 0 32 32 VTop 2
WINDOW 3 0 32 VBottom 2
SYMATTR InstName C7
SYMATTR Value 16n
SYMBOL res 320 1728 R0
SYMATTR InstName R9
SYMATTR Value 1000
SYMBOL diode 384 1744 R270
WINDOW 0 32 32 VTop 2
WINDOW 3 0 32 VBottom 2
SYMATTR InstName D2
SYMBOL cap 592 144 R0
SYMATTR InstName C8
SYMATTR Value 398n
SYMBOL res 592 64 R90
WINDOW 0 0 56 VBottom 2
WINDOW 3 32 56 VTop 2
SYMATTR InstName R10
SYMATTR Value 1000
SYMBOL hpassFilter 112 1712 R0
SYMATTR InstName X1
SYMBOL LpassFilter 176 -192 R0
SYMATTR InstName X3
SYMBOL LpassFilter 304 -192 R0
SYMATTR InstName X4
SYMBOL LpassFilter 432 -192 R0
SYMATTR InstName X5
SYMBOL hpassFilter 48 -80 R0
SYMATTR InstName X6
SYMBOL hpassFilter 176 -80 R0
SYMATTR InstName X7
SYMBOL hpassFilter 304 -80 R0
SYMATTR InstName X8
SYMBOL hpassFilter 432 -80 R0
SYMATTR InstName X9
SYMBOL BpassFilter 96 -320 R0
SYMATTR InstName X2
SYMBOL BpassFilter 224 -320 R0
SYMATTR InstName X10
SYMBOL OpAmps\\AD746 560 -640 R0
SYMATTR InstName U2
SYMBOL res 624 -736 R90
WINDOW 0 0 56 VBottom 2
WINDOW 3 32 56 VTop 2
SYMATTR InstName R11
SYMATTR Value 100K
SYMBOL res 480 -720 R180
WINDOW 0 36 76 Left 2
WINDOW 3 36 40 Left 2
SYMATTR InstName R12
SYMATTR Value 5K
SYMBOL BpassFilter 352 -320 R0
SYMATTR InstName X11
SYMBOL BpassFilter 480 -320 R0
SYMATTR InstName X12
TEXT -1056 192 Left 2 !.tran 2.4
TEXT -104 -32 Left 2 ;Low-pass filter
TEXT -1160 -72 Left 2 ;Jack source
TEXT 1424 552 Left 2 ;Ampli part
TEXT -328 1632 Left 2 ;Hight-pass filter
TEXT -232 400 Left 2 ;Rejec-band filter
TEXT -624 -80 Left 2 ;Filter selector
TEXT -232 1136 Left 2 ;Pass_band filter
RECTANGLE Normal 736 352 -112 -48 2
RECTANGLE Normal -832 160 -1200 -48 2
RECTANGLE Normal 784 1904 -336 1616 2
RECTANGLE Normal -272 176 -720 -64 2
RECTANGLE Normal 576 1072 -240 384 2
RECTANGLE Normal 1792 528 928 -128 2
RECTANGLE Normal 576 1472 -240 1120 2
